*HEADING
PETG pillbox sleeve wall - nonlinear detent interference submodel
*NODE
1,-10.000000,0.000000,0.000000
2,-9.500000,0.000000,0.000000
3,-9.000000,0.000000,0.000000
4,-8.500000,0.000000,0.000000
5,-8.000000,0.000000,0.000000
6,-7.500000,0.000000,0.000000
7,-7.000000,0.000000,0.000000
8,-6.500000,0.000000,0.000000
9,-6.000000,0.000000,0.000000
10,-5.500000,0.000000,0.000000
11,-5.000000,0.000000,0.000000
12,-4.500000,0.000000,0.000000
13,-4.000000,0.000000,0.000000
14,-3.500000,0.000000,0.000000
15,-3.000000,0.000000,0.000000
16,-2.500000,0.000000,0.000000
17,-2.000000,0.000000,0.000000
18,-1.500000,0.000000,0.000000
19,-1.000000,0.000000,0.000000
20,-0.500000,0.000000,0.000000
** ... 9451 like lines cut
*ELEMENT,TYPE=C3D8R,ELSET=WALL
1,1,2,43,42,288,289,330,329
2,2,3,44,43,289,290,331,330
3,3,4,45,44,290,291,332,331
4,4,5,46,45,291,292,333,332
5,5,6,47,46,292,293,334,333
6,6,7,48,47,293,294,335,334
7,7,8,49,48,294,295,336,335
8,8,9,50,49,295,296,337,336
9,9,10,51,50,296,297,338,337
10,10,11,52,51,297,298,339,338
11,11,12,53,52,298,299,340,339
12,12,13,54,53,299,300,341,340
13,13,14,55,54,300,301,342,341
14,14,15,56,55,301,302,343,342
15,15,16,57,56,302,303,344,343
16,16,17,58,57,303,304,345,344
17,17,18,59,58,304,305,346,345
18,18,19,60,59,305,306,347,346
19,19,20,61,60,306,307,348,347
20,20,21,62,61,307,308,349,348
** ... 7660 like lines cut
*NSET,NSET=FIXED_EDGES
1,2,3,4,5,6,7,8,9,10,11,12,13,14,15,16
17,18,19,20,21,22,23,24,25,26,27,28,29,30,31,32
33,34,35,36,37,38,39,40,41,42,43,44,45,46,47,48
49,50,51,52,53,54,55,56,57,58,59,60,61,62,63,64
65,66,67,68,69,70,71,72,73,74,75,76,77,78,79,80
81,82,83,84,85,86,87,88,89,90,91,92,93,94,95,96
97,98,99,100,101,102,103,104,105,106,107,108,109,110,111,112
113,114,115,116,117,118,119,120,121,122,123,124,125,126,127,128
129,130,131,132,133,134,135,136,137,138,139,140,141,142,143,144
145,146,147,148,149,150,151,152,153,154,155,156,157,158,159,160
161,162,163,164,165,166,167,168,169,170,171,172,173,174,175,176
177,178,179,180,181,182,183,184,185,186,187,188,189,190,191,192
193,194,195,196,197,198,199,200,201,202,203,204,205,206,207,208
209,210,211,212,213,214,215,216,217,218,219,220,221,222,223,224
225,226,227,228,229,230,231,232,233,234,235,236,237,238,239,240
241,242,243,244,245,246,247,248,249,250,251,252,253,254,255,256
257,258,259,260,261,262,263,264,265,266,267,268,269,270,271,272
273,274,275,276,277,278,279,280,281,282,283,284,285,286,287,9185
9186,9187,9188,9189,9190,9191,9192,9193,9194,9195,9196,9197,9198,9199,9200,9201
9202,9203,9204,9205,9206,9207,9208,9209,9210,9211,9212,9213,9214,9215,9216,9217
** ... 16 like lines cut
*NSET,NSET=DETENT_PATCH
4031,4032,4033,4034,4035,4036,4037,4038,4039,4040,4041,4042,4043,4044,4045,4046
4047,4318,4319,4320,4321,4322,4323,4324,4325,4326,4327,4328,4329,4330,4331,4332
4333,4334,4605,4606,4607,4608,4609,4610,4611,4612,4613,4614,4615,4616,4617,4618
4619,4620,4621,4892,4893,4894,4895,4896,4897,4898,4899,4900,4901,4902,4903,4904
4905,4906,4907,4908,5179,5180,5181,5182,5183,5184,5185,5186,5187,5188,5189,5190
5191,5192,5193,5194,5195
*MATERIAL,NAME=PETG_PRINTED_XY
*ELASTIC
1939.,0.38
*PLASTIC
46.2,0.0
50.0,0.020
*SOLID SECTION,ELSET=WALL,MATERIAL=PETG_PRINTED_XY
*STEP,NLGEOM
*STATIC
0.05,1.0,1.E-05,0.10
*BOUNDARY
FIXED_EDGES,1,3,0.0
DETENT_PATCH,2,2,0.050000
*NODE FILE
U,RF
*EL FILE
S,PEEQ
*NODE PRINT,NSET=DETENT_PATCH,TOTALS=YES
RF
*EL PRINT,ELSET=WALL
S,PEEQ
*END STEP
